VERSION 17
*******************************************************************************
*** TRNSYS input file (deck) generated by TrnsysStudio
*** on Monday, May 07, 2012 at 14:40
*** from TrnsysStudio project: E:\co-sim-r8028\test_E\TRNSYS\E_1.tpf
*** 
*** If you edit this file, use the File/Import TRNSYS Input File function in 
*** TrnsysStudio to update the project. 
*** 
*** If you have problems, questions or suggestions please contact your local 
*** TRNSYS distributor or mailto:software@cstb.fr 
*** 
*******************************************************************************


*******************************************************************************
*** Units 
*******************************************************************************

*******************************************************************************
*** Control cards
*******************************************************************************
* START, STOP and STEP
CONSTANTS 3
START=648
STOP=912
STEP=delta_t
* User defined CONSTANTS 
EQUATIONS 1
delta_t = 1/30
SIMULATION 	 START	 STOP	 STEP	! Start time	End time	Time step
TOLERANCES 0.001 0.001			! Integration	 Convergence
LIMITS 30 500 50				! Max iterations	Max warnings	Trace limit
DFQ 1					! TRNSYS numerical integration solver method
WIDTH 80				! TRNSYS output file width, number of characters
LIST 					! NOLIST statement
					! MAP statement
SOLVER 0 1 1				! Solver statement	Minimum relaxation factor	Maximum relaxation factor
NAN_CHECK 0				! Nan DEBUG statement
OVERWRITE_CHECK 0			! Overwrite DEBUG statement
TIME_REPORT 0			! disable time report
EQSOLVER 0				! EQUATION SOLVER statement

* Model "Type108" (Type 108)
* 

UNIT 2 TYPE 108	 Type108
*$UNIT_NAME Type108
*$MODEL .\Controllers\5-Stage Room Thermostat\Type108.tmf
*$POSITION 614 223
*$LAYER Main # 
PARAMETERS 6
5		! 1 No of oscillations permitted
1		! 2 1st stage heating in 2nd stage?
1		! 3 2nd stage heating in 3rd stage?
1		! 4 1st stage heating in 3rd stage?
1		! 5 1st stage cooling in 2nd stage?
1.0		! 6 Temperature dead band
INPUTS 6
4,3 		! Type130:Tdbzone-2 ->Monitoring temperature
0,0		! [unconnected] 1st stage heating setpoint
0,0		! [unconnected] 2nd stage heating setpoint
0,0		! [unconnected] 3rd stage heating setpoint
0,0		! [unconnected] 1st stage cooling setpoint
0,0		! [unconnected] 2nd stage cooling setpoint
*** INITIAL INPUT VALUES
20.0 21.0 0 0 100.0 100.0 
*------------------------------------------------------------------------------

* Model "Type114" (Type 114)
* 

UNIT 3 TYPE 114	 Type114
*$UNIT_NAME Type114
*$MODEL .\Hydronics\Pumps\Single Speed\Type114.tmf
*$POSITION 369 351
*$LAYER Main # 
*$# SINGLE-SPEED PUMP
PARAMETERS 4
460.800022		! 1 Rated flow rate
4.19		! 2 Fluid specific heat
71.999998		! 3 Rated power
0.0		! 4 Motor heat loss fraction
INPUTS 5
4,5 		! Type130:THccToTrnsys ->Inlet fluid temperature
4,6 		! Type130:FlowHccToTrnsys ->Inlet fluid flow rate
2,1 		! Type108:Control signal for 1st stage heating ->Control signal
0,0		! [unconnected] Overall pump efficiency
0,0		! [unconnected] Motor efficiency
*** INITIAL INPUT VALUES
20.0 0.0 1.0 1 1 
*------------------------------------------------------------------------------

* Model "Type130" (Type 130)
* 

UNIT 4 TYPE 130	 Type130
*$UNIT_NAME Type130
*$MODEL \Documents\ESP-r_TRNSYS_coupling\TRNSYS_source_code\Type 130\Type130.tmf
*$POSITION 656 458
*$LAYER Main # 
PARAMETERS 6
0		! 1 Mode
2		! 2 NumZones
1		! 3 NumHccToTrnsys
1		! 4 NumHccToEspr
0		! 5 NumAccToTrnsys
0		! 6 NumAccToEspr
INPUTS 4
0,0		! [unconnected] Gains Zone-1
0,0		! [unconnected] Gains Zone-2
3,1 		! Type114:Outlet fluid temperature ->THccToEspr
3,2 		! Type114:Outlet flow rate ->FlowHccToEspr
*** INITIAL INPUT VALUES
0 0 0 0 
*------------------------------------------------------------------------------

END
