VERSION 17
*******************************************************************************
*** TRNSYS input file (deck) generated by TrnsysStudio
*** on Friday, May 25, 2012 at 15:40
*** from TrnsysStudio project: E:\co-simulation\test_E\TRNSYS\E_3.tpf
*** 
*** If you edit this file, use the File/Import TRNSYS Input File function in 
*** TrnsysStudio to update the project. 
*** 
*** If you have problems, questions or suggestions please contact your local 
*** TRNSYS distributor or mailto:software@cstb.fr 
*** 
*******************************************************************************


*******************************************************************************
*** Units 
*******************************************************************************

*******************************************************************************
*** Control cards
*******************************************************************************
* START, STOP and STEP
CONSTANTS 3
START=648
STOP=912
STEP=delta_t
* User defined CONSTANTS 
EQUATIONS 1
delta_t = 1/30
SIMULATION 	 START	 STOP	 STEP	! Start time	End time	Time step
TOLERANCES 0.001 0.001			! Integration	 Convergence
LIMITS 30 500 50				! Max iterations	Max warnings	Trace limit
DFQ 1					! TRNSYS numerical integration solver method
WIDTH 80				! TRNSYS output file width, number of characters
LIST 					! NOLIST statement
					! MAP statement
SOLVER 0 1 1				! Solver statement	Minimum relaxation factor	Maximum relaxation factor
NAN_CHECK 0				! Nan DEBUG statement
OVERWRITE_CHECK 0			! Overwrite DEBUG statement
TIME_REPORT 0			! disable time report
EQSOLVER 0				! EQUATION SOLVER statement

* Model "Type108" (Type 108)
* 

UNIT 2 TYPE 108	 Type108
*$UNIT_NAME Type108
*$MODEL .\Controllers\5-Stage Room Thermostat\Type108.tmf
*$POSITION 614 132
*$LAYER Main # 
PARAMETERS 6
5		! 1 No of oscillations permitted
1		! 2 1st stage heating in 2nd stage?
1		! 3 2nd stage heating in 3rd stage?
1		! 4 1st stage heating in 3rd stage?
1		! 5 1st stage cooling in 2nd stage?
1.0		! 6 Temperature dead band
INPUTS 6
4,3 		! Type130:Tdbzone-2 ->Monitoring temperature
0,0		! [unconnected] 1st stage heating setpoint
0,0		! [unconnected] 2nd stage heating setpoint
0,0		! [unconnected] 3rd stage heating setpoint
0,0		! [unconnected] 1st stage cooling setpoint
0,0		! [unconnected] 2nd stage cooling setpoint
*** INITIAL INPUT VALUES
20.0 21.0 0 0 100.0 100.0 
*------------------------------------------------------------------------------

* Model "SH pump" (Type 114)
* 

UNIT 3 TYPE 114	 SH pump
*$UNIT_NAME SH pump
*$MODEL .\Hydronics\Pumps\Single Speed\Type114.tmf
*$POSITION 369 260
*$LAYER Main # 
*$# SINGLE-SPEED PUMP
PARAMETERS 4
460.800022		! 1 Rated flow rate
4.19		! 2 Fluid specific heat
71.999998		! 3 Rated power
0.0		! 4 Motor heat loss fraction
INPUTS 5
4,5 		! Type130:THccToTrnsys-1 ->Inlet fluid temperature
4,6 		! Type130:FlowHccToTrnsys-1 ->Inlet fluid flow rate
2,1 		! Type108:Control signal for 1st stage heating ->Control signal
0,0		! [unconnected] Overall pump efficiency
0,0		! [unconnected] Motor efficiency
*** INITIAL INPUT VALUES
20.0 0.0 1.0 1 1 
*------------------------------------------------------------------------------

* Model "Type130" (Type 130)
* 

UNIT 4 TYPE 130	 Type130
*$UNIT_NAME Type130
*$MODEL \Documents\ESP-r_TRNSYS_coupling\TRNSYS_source_code\Type 130\Type130.tmf
*$POSITION 656 367
*$LAYER Main # 
PARAMETERS 6
0		! 1 Mode
2		! 2 NumZones
2		! 3 NumHccToTrnsys
2		! 4 NumHccToEspr
1		! 5 NumAccToTrnsys
1		! 6 NumAccToEspr
INPUTS 9
0,0		! [unconnected] Gains Zone-1
0,0		! [unconnected] Gains Zone-2
7,1 		! Type670:Outlet fluid temperature ->THccToEspr-1
7,2 		! Type670:Outlet fluid flow rate ->FlowHccToEspr-1
5,1 		! SOFC pump:Outlet fluid temperature ->THccToEspr-2
5,2 		! SOFC pump:Outlet flow rate ->FlowHccToEspr-2
7,3 		! Type670:Outlet air temperature ->TAccToEspr
7,4 		! Type670:Outlet air humidity ratio ->HRAccToEspr
7,6 		! Type670:Outlet air flow rate ->FlowAccToEspr
*** INITIAL INPUT VALUES
0 0 0 0 0 0 0 0 0 
*------------------------------------------------------------------------------

* Model "SOFC pump" (Type 114)
* 

UNIT 5 TYPE 114	 SOFC pump
*$UNIT_NAME SOFC pump
*$MODEL .\Hydronics\Pumps\Single Speed\Type114.tmf
*$POSITION 853 185
*$LAYER Main # 
*$# SINGLE-SPEED PUMP
PARAMETERS 4
460.800022		! 1 Rated flow rate
4.19		! 2 Fluid specific heat
71.999998		! 3 Rated power
0.0		! 4 Motor heat loss fraction
INPUTS 5
4,7 		! Type130:THccToTrnsys-2 ->Inlet fluid temperature
4,8 		! Type130:FlowHccToTrnsys-2 ->Inlet fluid flow rate
0,0		! [unconnected] Control signal
0,0		! [unconnected] Overall pump efficiency
0,0		! [unconnected] Motor efficiency
*** INITIAL INPUT VALUES
20.0 0.0 1.0 1 1 
*------------------------------------------------------------------------------

* Model "Type25a" (Type 25)
* 

UNIT 6 TYPE 25	 Type25a
*$UNIT_NAME Type25a
*$MODEL .\Output\Printer\Unformatted\TRNSYS-Supplied Units\Type25a.tmf
*$POSITION 230 607
*$LAYER Outputs # 
PARAMETERS 10
STEP		! 1 Printing interval
START		! 2 Start time
STOP		! 3 Stop time
30		! 4 Logical unit
2		! 5 Units printing mode
0		! 6 Relative or absolute start time
-1		! 7 Overwrite or Append
-1		! 8 Print header
2		! 9 Delimiter
1		! 10 Print labels
INPUTS 5
3,2 		! SH pump:Outlet flow rate ->Input to be printed-1
3,1 		! SH pump:Outlet fluid temperature ->Input to be printed-2
4,11 		! Type130:FlowAccToTrnsys ->Input to be printed-3
4,9 		! Type130:TAccToTrnsys ->Input to be printed-4
4,10 		! Type130:HRAccToTrnsys ->Input to be printed-5
*** INITIAL INPUT VALUES
Outlet Outlet Outlet Outlet Outlet 
*** External files
ASSIGN "***.out" 30
*|? Output File for printed results |1000
*------------------------------------------------------------------------------

* Model "Type670" (Type 670)
* 

UNIT 7 TYPE 670	 Type670
*$UNIT_NAME Type670
*$MODEL .\HVAC Library (TESS)\Heating Coils\Liquid Source\Effectiveness Approach\Type670.tmf
*$POSITION 593 522
*$LAYER Main # 
*$# Heating Coil With Fluid-Side Bypass to Keep Air Outlet Below its Setpoint
*$# 
*$# 
*$# 
*$# 
*$# 
*$# 
*$# 
PARAMETERS 2
2		! 1 Humidity mode
4.190		! 2 Liquid specific heat
INPUTS 10
3,1 		! SH pump:Outlet fluid temperature ->Fluid inlet temperature
3,2 		! SH pump:Outlet flow rate ->Fluid flow rate
4,9 		! Type130:TAccToTrnsys ->Air inlet temperature
4,10 		! Type130:HRAccToTrnsys ->Air inlet humidity ratio
0,0		! [unconnected] Air inlet relative humidity
4,11 		! Type130:FlowAccToTrnsys ->Air inlet flow rate
0,0		! [unconnected] Air inlet pressure
0,0		! [unconnected] Effectiveness of heat exchanger
0,0		! [unconnected] Air-side pressure drop
0,0		! [unconnected] Air set point temperature
*** INITIAL INPUT VALUES
40.0 1000.0 10 0.008 50. 1000.0 1. 0.8 0.0 50 
*------------------------------------------------------------------------------

END
