VERSION 17
*******************************************************************************
*** TRNSYS input file (deck) generated by TrnsysStudio
*** on mardi, avril 17, 2012 at 13:48
*** from TrnsysStudio project: C:\Trnsys17\MyProjects\Tests co-simulation\Espr Trnsys Test C\EsprTrnsysTest_C.tpf
*** 
*** If you edit this file, use the File/Import TRNSYS Input File function in 
*** TrnsysStudio to update the project. 
*** 
*** If you have problems, questions or suggestions please contact your local 
*** TRNSYS distributor or mailto:software@cstb.fr 
*** 
*******************************************************************************


*******************************************************************************
*** Units 
*******************************************************************************

*******************************************************************************
*** Control cards
*******************************************************************************
* START, STOP and STEP
CONSTANTS 3
START=0
STOP=48
STEP=TSTEP
* User defined CONSTANTS 
EQUATIONS 1
TSTEP=1/60
SIMULATION 	 START	 STOP	 STEP	! Start time	End time	Time step
TOLERANCES 0.001 0.001			! Integration	 Convergence
LIMITS 30 700 50				! Max iterations	Max warnings	Trace limit
DFQ 1					! TRNSYS numerical integration solver method
WIDTH 80				! TRNSYS output file width, number of characters
LIST 					! NOLIST statement
					! MAP statement
SOLVER 0 1 1				! Solver statement	Minimum relaxation factor	Maximum relaxation factor
NAN_CHECK 0				! Nan DEBUG statement
OVERWRITE_CHECK 0			! Overwrite DEBUG statement
TIME_REPORT 0			! disable time report
EQSOLVER 0				! EQUATION SOLVER statement

* Model " Solar collectors" (Type 1)
* 

UNIT 3 TYPE 1	  Solar collectors
*$UNIT_NAME  Solar collectors
*$MODEL .\Solar Thermal Collectors\Quadratic Efficiency Collector\2nd-Order Incidence Angle Modifiers\Type1b.tmf
*$POSITION 340 255
*$LAYER Main # 
PARAMETERS 11
2		! 1 Number in series
15		! 2 Collector area
3.6		! 3 Fluid specific heat
1		! 4 Efficiency mode
75		! 5 Tested flow rate
0.766		! 6 Intercept efficiency
15.439		! 7 Efficiency slope
0.072		! 8 Efficiency curvature
2		! 9 Optical mode 2
0.11		! 10 1st-order IAM
0.051		! 11 2nd-order IAM
INPUTS 9
6,1 		! pump 1:Outlet fluid temperature ->Inlet temperature
6,2 		! pump 1:Outlet flow rate ->Inlet flowrate
32,1 		! Type15-5:Dry bulb temperature ->Ambient temperature
32,24 		! Type15-5:Total tilted surface radiation for surface-1 ->Incident radiation
32,14 		! Type15-5:Global horizontal radiation (not interpolated) ->Total horizontal radiation
32,22 		! Type15-5:Total diffuse radiation on the horizontal ->Horizontal diffuse radiation
32,91 		! Type15-5:Ground reflectance ->Ground reflectance
32,49 		! Type15-5:Angle of incidence for surface-1 ->Incidence angle
32,54 		! Type15-5:Slope of surface-1 ->Collector slope
*** INITIAL INPUT VALUES
20 100.0 10 0. 0.0 0.0 0.2 45 45 
*------------------------------------------------------------------------------

* Model "pump 1" (Type 3)
* 

UNIT 6 TYPE 3	 pump 1
*$UNIT_NAME pump 1
*$MODEL .\Hydronics\Pumps\Single Speed\Type3d.tmf
*$POSITION 336 383
*$LAYER Outputs # Water Loop # 
PARAMETERS 4
200		! 1 Maximum flow rate
4.190		! 2 Fluid specific heat
60		! 3 Maximum power
0.05		! 4 Conversion coefficient
INPUTS 3
9,20 		! Storage Tank:Temperature at HX Outlet-1 ->Inlet fluid temperature
9,21 		! Storage Tank:HX flow rate-1 ->Inlet mass flow rate
11,1 		! Controller 1:Output control function ->Control signal
*** INITIAL INPUT VALUES
20.0 100.0 1.0 
*------------------------------------------------------------------------------

* Model "Plotter 1" (Type 65)
* 

UNIT 7 TYPE 65	 Plotter 1
*$UNIT_NAME Plotter 1
*$MODEL .\Output\Online Plotter\Online Plotter Without File\Type65d.tmf
*$POSITION 594 106
*$LAYER Outputs # 
PARAMETERS 12
2		! 1 Nb. of left-axis variables
2		! 2 Nb. of right-axis variables
-200		! 3 Left axis minimum
150		! 4 Left axis maximum
0.0		! 5 Right axis minimum
10000		! 6 Right axis maximum
12		! 7 Number of plots per simulation
12		! 8 X-axis gridpoints
0		! 9 Shut off Online w/o removing
-1		! 10 Logical unit for output file
0		! 11 Output file units
0		! 12 Output file delimiter
INPUTS 4
9,20 		! Storage Tank:Temperature at HX Outlet-1 ->Left axis variable-1
3,1 		!  Solar collectors:Outlet temperature ->Left axis variable-2
32,24 		! Type15-5:Total tilted surface radiation for surface-1 ->Right axis variable-1
3,2 		!  Solar collectors:Outlet flowrate ->Right axis variable-2
*** INITIAL INPUT VALUES
TiColl ToColl GColl mdColl 
LABELS  3
"Temperatures"
"Radiation-mass flow rate"
"Solar Collerctors"
*------------------------------------------------------------------------------

* Model "Plotter 2" (Type 65)
* 

UNIT 8 TYPE 65	 Plotter 2
*$UNIT_NAME Plotter 2
*$MODEL .\Output\Online Plotter\Online Plotter Without File\Type65d.tmf
*$POSITION 690 148
*$LAYER Outputs # 
PARAMETERS 12
7		! 1 Nb. of left-axis variables
2		! 2 Nb. of right-axis variables
-30		! 3 Left axis minimum
110		! 4 Left axis maximum
0.0		! 5 Right axis minimum
800		! 6 Right axis maximum
12		! 7 Number of plots per simulation
12		! 8 X-axis gridpoints
0		! 9 Shut off Online w/o removing
-1		! 10 Logical unit for output file
0		! 11 Output file units
0		! 12 Output file delimiter
INPUTS 9
9,1 		! Storage Tank:Temperature at outlet ->Left axis variable-1
9,15 		! Storage Tank:Tank nodal temperature-1 ->Left axis variable-2
9,16 		! Storage Tank:Tank nodal temperature-2 ->Left axis variable-3
9,17 		! Storage Tank:Tank nodal temperature-3 ->Left axis variable-4
9,18 		! Storage Tank:Tank nodal temperature-4 ->Left axis variable-5
9,19 		! Storage Tank:Tank nodal temperature-5 ->Left axis variable-6
9,20 		! Storage Tank:Temperature at HX Outlet-1 ->Left axis variable-7
9,2 		! Storage Tank:Flow rate at outlet ->Right axis variable-1
9,21 		! Storage Tank:HX flow rate-1 ->Right axis variable-2
*** INITIAL INPUT VALUES
T_to_DHW T1 T2 T3 T4 T5 T_to_Col Flow_out_to_DHW Flow_out_to_Col 
LABELS  3
"Temperatures"
"Mass flow rates"
"Storage Tank"
*------------------------------------------------------------------------------

* Model "Storage Tank" (Type 534)
* 

UNIT 9 TYPE 534	 Storage Tank
*$UNIT_NAME Storage Tank
*$MODEL .\Storage Tank Library (TESS)\Cylindrical Storage Tank\Vertical Cylinder\Version without Plug-In\Coiled Tube HXs\Type534-Coiled.tmf
*$POSITION 494 319
*$LAYER Main # 
*$# CYLINDRICAL STORAGE TANK
PARAMETERS 77
-1		! 1 LU for data file
5		! 2 Number of tank nodes
1		! 3 Number of ports
2		! 4 Number of immersed heat exchangers
0		! 5 Number of miscellaneous heat flows
0.6		! 6 Tank volume
1.5		! 7 Tank height
0		! 8 Tank fluid
4.19		! 9 Fluid specific heat
1000		! 10 Fluid density
2.14		! 11 Fluid thermal conductivity
3.21		! 12 Fluid viscosity
0.00026		! 13 Fluid thermal expansion coefficient
5.0		! 14 Top loss coefficient
5.0		! 15 Edge loss coefficient for node-1
5.0		! 16 Edge loss coefficient for node-2
5.0		! 17 Edge loss coefficient for node-3
5.0		! 18 Edge loss coefficient for node-4
5.0		! 19 Edge loss coefficient for node-5
5.0		! 20 Bottom loss coefficient
0		! 21 Additional thermal conductivity
1		! 22 Inlet flow mode
5		! 23 Entry node
1		! 24 Exit node
3.0		! 25 Flue loss coefficient for node-1
3.0		! 26 Flue loss coefficient for node-2
3.0		! 27 Flue loss coefficient for node-3
3.0		! 28 Flue loss coefficient for node-4
3.0		! 29 Flue loss coefficient for node-5
3		! 30 Type of HX-1
2		! 31 Number of HX nodes-1
0		! 32 HX fluid-1
4.19		! 33 HX fluid specific heat-1
1000		! 34 HX fluid density-1
2.14		! 35 HX fluid thermal conductivity-1
3.21		! 36 HX fluid viscosity-1
0.6		! 37 Multiplier for natural convection-1
0.6		! 38 Exponent for natural convection-1
1.0		! 39 Geometry factor for natural convection-1
1.0		! 40 Geometry exponent for natural convection-1
0.0254		! 41 Inner tube diameter-1
0.0264		! 42 Outer tube diameter-1
2.14		! 43 HX wall thermal conductivity-1
10.0		! 44 Length of coiled tubes-1
1		! 45 Number of tubes-1
0.		! 46 HX header volume-1
0.05		! 47 HX cross sectional area-1
0.5		! 48 Coil diameter-1
0.02		! 49 Coil pitch-1
4		! 50 Tank node for HX node-1-1
0.5		! 51 Fraction of HX length-1-1
5		! 52 Tank node for HX node-1-2
0.5		! 53 Fraction of HX length-1-2
3		! 54 Type of HX-2
2		! 55 Number of HX nodes-2
0		! 56 HX fluid-2
2		! 57 HX fluid specific heat-2
1000		! 58 HX fluid density-2
2.14		! 59 HX fluid thermal conductivity-2
3.21		! 60 HX fluid viscosity-2
0.6		! 61 Multiplier for natural convection-2
0.6		! 62 Exponent for natural convection-2
1.0		! 63 Geometry factor for natural convection-2
1.0		! 64 Geometry exponent for natural convection-2
0.0254		! 65 Inner tube diameter-2
0.0264		! 66 Outer tube diameter-2
2.14		! 67 HX wall thermal conductivity-2
10.0		! 68 Length of coiled tubes-2
1		! 69 Number of tubes-2
0.		! 70 HX header volume-2
0.05		! 71 HX cross sectional area-2
0.5		! 72 Coil diameter-2
0.02		! 73 Coil pitch-2
3		! 74 Tank node for HX node-2-1
0.5		! 75 Fraction of HX length-2-1
2		! 76 Tank node for HX node-2-2
0.5		! 77 Fraction of HX length-2-2
INPUTS 20
26,1 		! Diverter:Temperature at outlet 1 ->Inlet temperature for port
26,2 		! Diverter:Flowrate at outlet 1 ->Inlet flow rate for port
3,1 		!  Solar collectors:Outlet temperature ->Inlet temperature for HX-1
3,2 		!  Solar collectors:Outlet flowrate ->Inlet flow rate for HX-1
29,1 		! Diverter-2:Temperature at outlet 1 ->Inlet temperature for HX-2
29,2 		! Diverter-2:Flowrate at outlet 1 ->Inlet flow rate for HX-2
0,0		! [unconnected] Top loss temperature
0,0		! [unconnected] Edge loss temperature for node-1
0,0		! [unconnected] Edge loss temperature for node-2
0,0		! [unconnected] Edge loss temperature for node-3
0,0		! [unconnected] Edge loss temperature for node-4
0,0		! [unconnected] Edge loss temperature for node-5
0,0		! [unconnected] Bottom loss temperature
0,0		! [unconnected] Gas flue temperature
0,0		! [unconnected] Inversion mixing flow rate
0,0		! [unconnected] Auxiliary heat input for node-1
0,0		! [unconnected] Auxiliary heat input for node-2
0,0		! [unconnected] Auxiliary heat input for node-3
0,0		! [unconnected] Auxiliary heat input for node-4
0,0		! [unconnected] Auxiliary heat input for node-5
*** INITIAL INPUT VALUES
20.0 0.0 20.0 0.0 20.0 0.0 20.0 20.0 20.0 20.0 20.0 20.0 20.0 20.0 -100 0.0
0.0 0.0 0.0 0.0 
DERIVATIVES 5
20.0		! 1 Initial Tank Temperature-1
20.0		! 2 Initial Tank Temperature-2
20.0		! 3 Initial Tank Temperature-3
20.0		! 4 Initial Tank Temperature-4
20.0		! 5 Initial Tank Temperature-5
*------------------------------------------------------------------------------

* Model "Controller 1" (Type 2)
* 

UNIT 11 TYPE 2	 Controller 1
*$UNIT_NAME Controller 1
*$MODEL .\Controllers\Differential Controller w_ Hysteresis\for Temperatures\Solver 0 (Successive Substitution) Control Strategy\Type2b.tmf
*$POSITION 188 287
*$LAYER Controls # 
*$# NOTE: This control strategy can only be used with solver 0 (Successive substitution)
*$# 
PARAMETERS 2
5		! 1 No. of oscillations
90		! 2 High limit cut-out
INPUTS 6
3,1 		!  Solar collectors:Outlet temperature ->Upper input temperature Th
9,19 		! Storage Tank:Tank nodal temperature-5 ->Lower input temperature Tl
9,15 		! Storage Tank:Tank nodal temperature-1 ->Monitoring temperature Tin
11,1 		! Controller 1:Output control function ->Input control function
0,0		! [unconnected] Upper dead band dT
0,0		! [unconnected] Lower dead band dT
*** INITIAL INPUT VALUES
20.0 10.0 20.0 0 10.0 2.0 
*------------------------------------------------------------------------------

* Model "Aux. heater 1" (Type 6)
* 

UNIT 13 TYPE 6	 Aux. heater 1
*$UNIT_NAME Aux. heater 1
*$MODEL .\HVAC\Auxiliary Heaters\Type6.tmf
*$POSITION 730 255
*$LAYER Main # 
PARAMETERS 4
1000000		! 1 Maximum heating rate
4.19		! 2 Specific heat of fluid
0.0		! 3 Overall loss coefficient for heater during operation
0.75		! 4 Efficiency of auxiliary heater
INPUTS 5
9,1 		! Storage Tank:Temperature at outlet ->Inlet fluid temperature
9,2 		! Storage Tank:Flow rate at outlet ->Fluid mass flow rate
0,0		! [unconnected] Control Function
0,0		! [unconnected] Set point temperature
0,0		! [unconnected] Temperature of surroundings
*** INITIAL INPUT VALUES
20.0 100.0 1 60.0 20.0 
*------------------------------------------------------------------------------

* Model "pump 2" (Type 3)
* 

UNIT 14 TYPE 3	 pump 2
*$UNIT_NAME pump 2
*$MODEL .\Hydronics\Pumps\Single Speed\Type3d.tmf
*$POSITION 847 415
*$LAYER Main # 
PARAMETERS 4
2000		! 1 Maximum flow rate
4.190		! 2 Fluid specific heat
60		! 3 Maximum power
0.05		! 4 Conversion coefficient
INPUTS 3
30,1 		! Tee piece-2:Outlet temperature ->Inlet fluid temperature
30,2 		! Tee piece-2:Outlet flow rate ->Inlet mass flow rate
19,1 		! Controller 2:Control signal for stage heating ->Control signal
*** INITIAL INPUT VALUES
20.0 100.0 1.0 
*------------------------------------------------------------------------------

* Model "Plotter 3" (Type 65)
* 

UNIT 16 TYPE 65	 Plotter 3
*$UNIT_NAME Plotter 3
*$MODEL .\Output\Online Plotter\Online Plotter Without File\Type65d.tmf
*$POSITION 946 554
*$LAYER Outputs # 
PARAMETERS 12
5		! 1 Nb. of left-axis variables
1		! 2 Nb. of right-axis variables
-20		! 3 Left axis minimum
100		! 4 Left axis maximum
0		! 5 Right axis minimum
100000		! 6 Right axis maximum
12		! 7 Number of plots per simulation
12		! 8 X-axis gridpoints
0		! 9 Shut off Online w/o removing
-1		! 10 Logical unit for output file
0		! 11 Output file units
0		! 12 Output file delimiter
INPUTS 6
0,0		! [unconnected] Left axis variable-1
0,0		! [unconnected] Left axis variable-2
32,1 		! Type15-5:Dry bulb temperature ->Left axis variable-3
17,1 		! Aux. heater 2:Outlet fluid temperature ->Left axis variable-4
0,0		! [unconnected] Left axis variable-5
0,0		! [unconnected] Right axis variable
*** INITIAL INPUT VALUES
Thouse Tgarage Tamb TiFloor ToFloor mdFloor 
LABELS  3
"Temperatures"
"mass flow rates"
"House"
*------------------------------------------------------------------------------

* Model "Aux. heater 2" (Type 6)
* 

UNIT 17 TYPE 6	 Aux. heater 2
*$UNIT_NAME Aux. heater 2
*$MODEL .\HVAC\Auxiliary Heaters\Type6.tmf
*$POSITION 623 404
*$LAYER Main # 
PARAMETERS 4
1000000		! 1 Maximum heating rate
4.19		! 2 Specific heat of fluid
0.0		! 3 Overall loss coefficient for heater during operation
0.75		! 4 Efficiency of auxiliary heater
INPUTS 5
9,22 		! Storage Tank:Temperature at HX Outlet-2 ->Inlet fluid temperature
9,23 		! Storage Tank:HX flow rate-2 ->Fluid mass flow rate
0,0		! [unconnected] Control Function
0,0		! [unconnected] Set point temperature
0,0		! [unconnected] Temperature of surroundings
*** INITIAL INPUT VALUES
20.0 100.0 1 50 20.0 
*------------------------------------------------------------------------------

* Model "Load profile" (Type 14)
* 

UNIT 20 TYPE 14	 Load profile
*$UNIT_NAME Load profile
*$MODEL .\Utility\Forcing Functions\Water Draw\Type14b.tmf
*$POSITION 202 477
*$LAYER Main # 
PARAMETERS 28
0		! 1 Initial value of time
0		! 2 Initial value of function
7		! 3 Time at point-1
0		! 4 Water draw at point -1
7		! 5 Time at point-2
0.2		! 6 Water draw at point -2
9		! 7 Time at point-3
0.2		! 8 Water draw at point -3
9		! 9 Time at point-4
0		! 10 Water draw at point -4
11		! 11 Time at point-5
0		! 12 Water draw at point -5
11		! 13 Time at point-6
0.1		! 14 Water draw at point -6
13		! 15 Time at point-7
0.1		! 16 Water draw at point -7
13		! 17 Time at point-8
0		! 18 Water draw at point -8
18		! 19 Time at point-9
0		! 20 Water draw at point -9
18		! 21 Time at point-10
0.1		! 22 Water draw at point -10
22		! 23 Time at point-11
0.1		! 24 Water draw at point -11
22		! 25 Time at point-12
0		! 26 Water draw at point -12
24		! 27 Time at point-13
0		! 28 Water draw at point -13
*------------------------------------------------------------------------------

* EQUATIONS "Daily load"
* 
EQUATIONS 1
mdDHW = [20,1] * 200        ! Multiply by daily consumption
*$UNIT_NAME Daily load
*$LAYER Main
*$POSITION 325 477

*------------------------------------------------------------------------------


* Model "Controller 2" (Type 1502)
* 

UNIT 19 TYPE 1502	 Controller 2
*$UNIT_NAME Controller 2
*$MODEL .\Controllers Library (TESS)\Simple Thermostat\Simple Heating Thermostat\Type1502.tmf
*$POSITION 939 448
*$LAYER Controls # 
PARAMETERS 4
1		! 1 Number of heating stages
5		! 2 # oscillations permitted
2		! 3 Temperature dead band
0		! 4 Number of stage exceptions
INPUTS 3
33,1 		! Type130:Tdbzone ->Fluid temperature
0,0		! [unconnected] Lockout signal
0,0		! [unconnected] Setpoint temperature for stage
*** INITIAL INPUT VALUES
20.0 0 20.0 
*------------------------------------------------------------------------------

* Model "Simulation Integration" (Type 24)
* 

UNIT 18 TYPE 24	 Simulation Integration
*$UNIT_NAME Simulation Integration
*$MODEL .\Utility\Integrators\Quantity Integrator\TYPE24.tmf
*$POSITION 98 819
*$LAYER Outputs # 
PARAMETERS 2
STOP		! 1 Integration period
0		! 2 Relative or absolute start time
INPUTS 4
32,24 		! Type15-5:Total tilted surface radiation for surface-1 ->Input to be integrated-1
9,26 		! Storage Tank:Energy delivered to HX-1 ->Input to be integrated-2
9,5 		! Storage Tank:Energy delivered to flow  ->Input to be integrated-3
13,3 		! Aux. heater 1:Required heating rate ->Input to be integrated-4
*** INITIAL INPUT VALUES
0.0 0.0 0.0 0.0 
*------------------------------------------------------------------------------

* Model "Daily Integration" (Type 24)
* 

UNIT 22 TYPE 24	 Daily Integration
*$UNIT_NAME Daily Integration
*$MODEL .\Utility\Integrators\Quantity Integrator\TYPE24.tmf
*$POSITION 233 765
*$LAYER Outputs # 
PARAMETERS 2
24		! 1 Integration period
0		! 2 Relative or absolute start time
INPUTS 4
32,24 		! Type15-5:Total tilted surface radiation for surface-1 ->Input to be integrated-1
9,26 		! Storage Tank:Energy delivered to HX-1 ->Input to be integrated-2
9,5 		! Storage Tank:Energy delivered to flow  ->Input to be integrated-3
13,3 		! Aux. heater 1:Required heating rate ->Input to be integrated-4
*** INITIAL INPUT VALUES
0.0 0.0 0.0 0.0 
*------------------------------------------------------------------------------

* Model "Daily Results" (Type 25)
* 

UNIT 23 TYPE 25	 Daily Results
*$UNIT_NAME Daily Results
*$MODEL .\Output\Printer\Unformatted\No Units\Type25c.tmf
*$POSITION 642 770
*$LAYER Outputs # 
PARAMETERS 10
24		! 1 Printing interval
START		! 2 Start time
STOP		! 3 Stop time
41		! 4 Logical unit
0		! 5 Units printing mode
0		! 6 Relative or absolute start time
-1		! 7 Overwrite or Append
-1		! 8 Print header
0		! 9 Delimiter
1		! 10 Print labels
INPUTS 6
22,1 		! Daily Integration:Result of integration-1 ->Input to be printed-1
22,2 		! Daily Integration:Result of integration-2 ->Input to be printed-2
22,3 		! Daily Integration:Result of integration-3 ->Input to be printed-3
22,4 		! Daily Integration:Result of integration-4 ->Input to be printed-4
EtaColl_d		! Efficiencies:EtaColl_d ->Input to be printed-5
FSol_d		! Efficiencies:FSol_d ->Input to be printed-6
*** INITIAL INPUT VALUES
IColl QuColl QDHW QAux EtaColl_d FSol_d 
*** External files
ASSIGN "Daily.txt" 41
*|? Output file for printed results |1000
*------------------------------------------------------------------------------

* EQUATIONS "Efficiencies"
* 
EQUATIONS 4
EtaColl_d = -[22,2] / (5*[22,1]+1e-6)
FSol_d = 1 - ( [22,4] / ([22,3] + 1e-6) )
EtaColl = -[18,2] / (5*[18,1]+1e-6)
FSol = 1 - ( [18,4] / ([18,3]+ 1e-6) )
*$UNIT_NAME Efficiencies
*$LAYER Outputs
*$POSITION 373 800

*------------------------------------------------------------------------------


* Model "Totals" (Type 25)
* 

UNIT 25 TYPE 25	 Totals
*$UNIT_NAME Totals
*$MODEL .\Output\Printer\Unformatted\No Units\Type25c.tmf
*$POSITION 632 837
*$LAYER Outputs # 
PARAMETERS 10
STOP		! 1 Printing interval
STOP		! 2 Start time
STOP		! 3 Stop time
42		! 4 Logical unit
0		! 5 Units printing mode
0		! 6 Relative or absolute start time
-1		! 7 Overwrite or Append
-1		! 8 Print header
0		! 9 Delimiter
1		! 10 Print labels
INPUTS 6
18,1 		! Simulation Integration:Result of integration-1 ->Input to be printed-1
18,2 		! Simulation Integration:Result of integration-2 ->Input to be printed-2
18,3 		! Simulation Integration:Result of integration-3 ->Input to be printed-3
18,4 		! Simulation Integration:Result of integration-4 ->Input to be printed-4
EtaColl		! Efficiencies:EtaColl ->Input to be printed-5
FSol		! Efficiencies:FSol ->Input to be printed-6
*** INITIAL INPUT VALUES
IColl QuColl QDHW QAux EtaColl FSol 
*** External files
ASSIGN "Totals.txt" 42
*|? Output file for printed results |1000
*------------------------------------------------------------------------------

* Model "Diverter" (Type 11)
* 

UNIT 26 TYPE 11	 Diverter
*$UNIT_NAME Diverter
*$MODEL .\Hydronics\Tempering Valve\Other Fluids\Type11b.tmf
*$POSITION 424 531
*$LAYER Main # 
PARAMETERS 2
4		! 1 Tempering valve mode
7		! 2 Nb. of oscillations allowed
INPUTS 4
0,0		! [unconnected] Inlet temperature
mdDHW		! Daily load:mdDHW ->Inlet flow rate
13,1 		! Aux. heater 1:Outlet fluid temperature ->Heat source temperature
0,0		! [unconnected] Set point temperature
*** INITIAL INPUT VALUES
20.0 100.0 55.0 45 
*------------------------------------------------------------------------------

* Model "Tee piece" (Type 11)
* 

UNIT 27 TYPE 11	 Tee piece
*$UNIT_NAME Tee piece
*$MODEL .\Hydronics\Tee-Piece\Other Fluids\Type11h.tmf
*$POSITION 847 258
*$LAYER Main # 
PARAMETERS 1
1		! 1 Tee piece mode
INPUTS 4
13,1 		! Aux. heater 1:Outlet fluid temperature ->Temperature at inlet 1
13,2 		! Aux. heater 1:Outlet fluid flow rate ->Flow rate at inlet 1
26,3 		! Diverter:Temperature at outlet 2 ->Temperature at inlet 2
26,4 		! Diverter:Flow rate at outlet 2 ->Flow rate at inlet 2
*** INITIAL INPUT VALUES
20.0 100.0 20.0 100.0 
*------------------------------------------------------------------------------

* Model "Plotter 4" (Type 65)
* 

UNIT 28 TYPE 65	 Plotter 4
*$UNIT_NAME Plotter 4
*$MODEL .\Output\Online Plotter\Online Plotter Without File\Type65d.tmf
*$POSITION 907 162
*$LAYER Outputs # 
PARAMETERS 12
1		! 1 Nb. of left-axis variables
1		! 2 Nb. of right-axis variables
-30		! 3 Left axis minimum
110		! 4 Left axis maximum
0.0		! 5 Right axis minimum
800		! 6 Right axis maximum
12		! 7 Number of plots per simulation
12		! 8 X-axis gridpoints
0		! 9 Shut off Online w/o removing
-1		! 10 Logical unit for output file
0		! 11 Output file units
0		! 12 Output file delimiter
INPUTS 2
27,1 		! Tee piece:Outlet temperature ->Left axis variable
27,2 		! Tee piece:Outlet flow rate ->Right axis variable
*** INITIAL INPUT VALUES
T_to_DHW Flow_out_to_DHW 
LABELS  3
"Temperatures"
"Mass flow rates"
"DHW"
*------------------------------------------------------------------------------

* Model "Diverter-2" (Type 11)
* 

UNIT 29 TYPE 11	 Diverter-2
*$UNIT_NAME Diverter-2
*$MODEL .\Hydronics\Tempering Valve\Other Fluids\Type11b.tmf
*$POSITION 613 535
*$LAYER Main # 
PARAMETERS 2
4		! 1 Tempering valve mode
7		! 2 Nb. of oscillations allowed
INPUTS 4
31,1 		! pipe:Outlet temperature ->Inlet temperature
31,2 		! pipe:Outlet flow rate ->Inlet flow rate
17,1 		! Aux. heater 2:Outlet fluid temperature ->Heat source temperature
0,0		! [unconnected] Set point temperature
*** INITIAL INPUT VALUES
20.0 100.0 55.0 55 
*------------------------------------------------------------------------------

* Model "Tee piece-2" (Type 11)
* 

UNIT 30 TYPE 11	 Tee piece-2
*$UNIT_NAME Tee piece-2
*$MODEL .\Hydronics\Tee-Piece\Other Fluids\Type11h.tmf
*$POSITION 736 418
*$LAYER Main # 
PARAMETERS 1
1		! 1 Tee piece mode
INPUTS 4
17,1 		! Aux. heater 2:Outlet fluid temperature ->Temperature at inlet 1
17,2 		! Aux. heater 2:Outlet fluid flow rate ->Flow rate at inlet 1
29,3 		! Diverter-2:Temperature at outlet 2 ->Temperature at inlet 2
29,4 		! Diverter-2:Flow rate at outlet 2 ->Flow rate at inlet 2
*** INITIAL INPUT VALUES
20.0 100.0 20.0 100.0 
*------------------------------------------------------------------------------

* Model "Type15-5" (Type 15)
* 

UNIT 32 TYPE 15	 Type15-5
*$UNIT_NAME Type15-5
*$MODEL .\Weather Data Reading and Processing\Standard Format\Canadian Weather for Energy Calculations Files (CWEC)\Type15-5.tmf
*$POSITION 157 138
*$LAYER Weather - Data Files # 
PARAMETERS 21
5		! 1 File Type
43		! 2 Logical unit
3		! 3 Tilted Surface Radiation Mode
0.2		! 4 Ground reflectance - no snow
0.7		! 5 Ground reflectance - snow cover
5		! 6 Number of surfaces
1		! 7 Tracking mode-1
45		! 8 Slope of surface-1
0		! 9 Azimuth of surface-1
1		! 10 Tracking mode-2
90		! 11 Slope of surface-2
0		! 12 Azimuth of surface-2
1		! 13 Tracking mode-3
90		! 14 Slope of surface-3
90		! 15 Azimuth of surface-3
1		! 16 Tracking mode-4
90		! 17 Slope of surface-4
180		! 18 Azimuth of surface-4
1		! 19 Tracking mode-5
90		! 20 Slope of surface-5
-90		! 21 Azimuth of surface-5
*** External files
ASSIGN "CAN_ON_Toronto.716240_CWEC.epw" 43
*|? Which file contains the CWEC weather data? |1000
*------------------------------------------------------------------------------

* Model "Type130" (Type 130)
* 

UNIT 33 TYPE 130	 Type130
*$UNIT_NAME Type130
*$MODEL .\Cosim Espr\Type130.tmf
*$POSITION 807 533
*$LAYER Main # 
PARAMETERS 6
0		! 1 Mode
1		! 2 NumZones
1		! 3 NumHccToTrnsys
1		! 4 NumHccToEspr
0		! 5 NumAccToTrnsys
0		! 6 NumAccToEspr
INPUTS 3
0,0		! [unconnected] Gains Zone
14,1 		! pump 2:Outlet fluid temperature ->THccToEspr
14,2 		! pump 2:Outlet flow rate ->FlowHccToEspr
*** INITIAL INPUT VALUES
0 0 0 
*------------------------------------------------------------------------------

* Model "pipe" (Type 31)
* 

UNIT 31 TYPE 31	 pipe
*$UNIT_NAME pipe
*$MODEL .\Hydronics\Pipe_Duct\Type31.tmf
*$POSITION 714 532
*$LAYER Main # 
PARAMETERS 6
0.2		! 1 Inside diameter
10		! 2 Pipe length
3.0		! 3 Loss coefficient
1000.0		! 4 Fluid density
4.190		! 5 Fluid specific heat
10.0		! 6 Initial fluid temperature
INPUTS 3
33,3 		! Type130:THccToTrnsys ->Inlet temperature
33,4 		! Type130:FlowHccToTrnsys ->Inlet flow rate
0,0		! [unconnected] Environment temperature
*** INITIAL INPUT VALUES
10.0 100.0 20 
*------------------------------------------------------------------------------

* Model "Type25c" (Type 25)
* 

UNIT 34 TYPE 25	 Type25c
*$UNIT_NAME Type25c
*$MODEL .\Output\Printer\Unformatted\No Units\Type25c.tmf
*$POSITION 838 650
*$LAYER Outputs # 
PARAMETERS 10
STEP		! 1 Printing interval
START		! 2 Start time
STOP		! 3 Stop time
44		! 4 Logical unit
0		! 5 Units printing mode
0		! 6 Relative or absolute start time
-1		! 7 Overwrite or Append
-1		! 8 Print header
0		! 9 Delimiter
1		! 10 Print labels
INPUTS 2
14,1 		! pump 2:Outlet fluid temperature ->Input to be printed-1
14,2 		! pump 2:Outlet flow rate ->Input to be printed-2
*** INITIAL INPUT VALUES
TempToEspr FlowToEspr 
*** External files
ASSIGN "***.out" 44
*|? Output file for printed results |1000
*------------------------------------------------------------------------------

END
