VERSION 17
*******************************************************************************
*** TRNSYS input file (deck) generated by TrnsysStudio
*** on mardi, avril 17, 2012 at 13:43
*** from TrnsysStudio project: C:\Trnsys17\MyProjects\Tests co-simulation\Espr Trnsys Test D\EsprTrnsysTest_D_1.tpf
*** 
*** If you edit this file, use the File/Import TRNSYS Input File function in 
*** TrnsysStudio to update the project. 
*** 
*** If you have problems, questions or suggestions please contact your local 
*** TRNSYS distributor or mailto:software@cstb.fr 
*** 
*******************************************************************************


*******************************************************************************
*** Units 
*******************************************************************************

*******************************************************************************
*** Control cards
*******************************************************************************
* START, STOP and STEP
CONSTANTS 3
START=0
STOP=48
STEP=TSTEP
* User defined CONSTANTS 
EQUATIONS 1
TSTEP=1/60
SIMULATION 	 START	 STOP	 STEP	! Start time	End time	Time step
TOLERANCES 0.001 0.001			! Integration	 Convergence
LIMITS 30 500 50				! Max iterations	Max warnings	Trace limit
DFQ 1					! TRNSYS numerical integration solver method
WIDTH 80				! TRNSYS output file width, number of characters
LIST 					! NOLIST statement
					! MAP statement
SOLVER 0 1 1				! Solver statement	Minimum relaxation factor	Maximum relaxation factor
NAN_CHECK 0				! Nan DEBUG statement
OVERWRITE_CHECK 0			! Overwrite DEBUG statement
TIME_REPORT 0			! disable time report
EQSOLVER 0				! EQUATION SOLVER statement

* Model "heater" (Type 6)
* 

UNIT 3 TYPE 6	 heater
*$UNIT_NAME heater
*$MODEL .\HVAC\Auxiliary Heaters\Type6.tmf
*$POSITION 492 383
*$LAYER Water Loop # 
PARAMETERS 4
1000000.0		! 1 Maximum heating rate
1		! 2 Specific heat of fluid
0.0		! 3 Overall loss coefficient for heater during operation
1.0		! 4 Efficiency of auxiliary heater
INPUTS 5
9,1 		! fan:Outlet fluid temperature ->Inlet fluid temperature
9,2 		! fan:Outlet flow rate ->Fluid mass flow rate
0,0		! [unconnected] Control Function
0,0		! [unconnected] Set point temperature
0,0		! [unconnected] Temperature of surroundings
*** INITIAL INPUT VALUES
20.0 100.0 1 40 20.0 
*------------------------------------------------------------------------------

* Model "on/off controller" (Type 108)
* 

UNIT 8 TYPE 108	 on/off controller
*$UNIT_NAME on/off controller
*$MODEL .\Controllers\5-Stage Room Thermostat\Type108.tmf
*$POSITION 436 266
*$LAYER Main # 
PARAMETERS 6
5		! 1 No of oscillations permitted
1		! 2 1st stage heating in 2nd stage?
1		! 3 2nd stage heating in 3rd stage?
1		! 4 1st stage heating in 3rd stage?
1		! 5 1st stage cooling in 2nd stage?
2.0		! 6 Temperature dead band
INPUTS 6
10,1 		! Type130:Tdbzone ->Monitoring temperature
0,0		! [unconnected] 1st stage heating setpoint
0,0		! [unconnected] 2nd stage heating setpoint
0,0		! [unconnected] 3rd stage heating setpoint
0,0		! [unconnected] 1st stage cooling setpoint
0,0		! [unconnected] 2nd stage cooling setpoint
*** INITIAL INPUT VALUES
20.0 20.0 0 0 24.0 26.0 
*------------------------------------------------------------------------------

* Model "Type25c" (Type 25)
* 

UNIT 7 TYPE 25	 Type25c
*$UNIT_NAME Type25c
*$MODEL .\Output\Printer\Unformatted\No Units\Type25c.tmf
*$POSITION 699 148
*$LAYER Outputs # 
PARAMETERS 10
STEP		! 1 Printing interval
START		! 2 Start time
STOP		! 3 Stop time
30		! 4 Logical unit
0		! 5 Units printing mode
0		! 6 Relative or absolute start time
-1		! 7 Overwrite or Append
-1		! 8 Print header
0		! 9 Delimiter
1		! 10 Print labels
INPUTS 5
3,1 		! heater:Outlet fluid temperature ->Input to be printed-1
3,2 		! heater:Outlet fluid flow rate ->Input to be printed-2
10,1 		! Type130:Tdbzone ->Input to be printed-3
10,3 		! Type130:TAccToTrnsys ->Input to be printed-4
10,5 		! Type130:FlowAccToTrnsys ->Input to be printed-5
*** INITIAL INPUT VALUES
TAccToEspr FlowAccToEspr Tdbzone TAccToTrnsys FlowAccToTrnsys 
*** External files
ASSIGN "***.out" 30
*|? Output file for printed results |1000
*------------------------------------------------------------------------------

* Model "fan" (Type 3)
* 

UNIT 9 TYPE 3	 fan
*$UNIT_NAME fan
*$MODEL .\Hydronics\Fans\Single Speed\No Humidity\Type3c.tmf
*$POSITION 312 383
*$LAYER Main # 
PARAMETERS 4
1000.0		! 1 Maximum flow rate
1		! 2 Fluid specific heat
100000000.0		! 3 Maximum power
0		! 4 Conversion coefficient
INPUTS 3
10,3 		! Type130:TAccToTrnsys ->Inlet fluid temperature
10,5 		! Type130:FlowAccToTrnsys ->Inlet mass flow rate
8,1 		! on/off controller:Control signal for 1st stage heating ->Control signal
*** INITIAL INPUT VALUES
20.0 100.0 1.0 
*------------------------------------------------------------------------------

* Model "Type130" (Type 130)
* 

UNIT 10 TYPE 130	 Type130
*$UNIT_NAME Type130
*$MODEL .\Cosim Espr\Type130.tmf
*$POSITION 711 323
*$LAYER Main # 
PARAMETERS 6
0		! 1 Mode
1		! 2 NumZones
0		! 3 NumHccToTrnsys
0		! 4 NumHccToEspr
1		! 5 NumAccToTrnsys
1		! 6 NumAccToEspr
INPUTS 4
0,0		! [unconnected] Gains Zone
3,1 		! heater:Outlet fluid temperature ->TAccToEspr
0,0		! [unconnected] HRAccToEspr
3,2 		! heater:Outlet fluid flow rate ->FlowAccToEspr
*** INITIAL INPUT VALUES
0 0 0 0 
*------------------------------------------------------------------------------

END
