VERSION 17
*******************************************************************************
*** TRNSYS input file (deck) generated by TrnsysStudio
*** on Monday, June 04, 2012 at 12:19
*** from TrnsysStudio project: C:\Users\rojosa\Desktop\Nouveau dossier\F_1.tpf
*** 
*** If you edit this file, use the File/Import TRNSYS Input File function in 
*** TrnsysStudio to update the project. 
*** 
*** If you have problems, questions or suggestions please contact your local 
*** TRNSYS distributor or mailto:software@cstb.fr 
*** 
*******************************************************************************


*******************************************************************************
*** Units 
*******************************************************************************

*******************************************************************************
*** Control cards
*******************************************************************************
* START, STOP and STEP
CONSTANTS 3
START=720
STOP=912
STEP=delta_t
* User defined CONSTANTS 
EQUATIONS 1
delta_t = 1/60
SIMULATION 	 START	 STOP	 STEP	! Start time	End time	Time step
TOLERANCES 0.001 0.001			! Integration	 Convergence
LIMITS 30 500 50				! Max iterations	Max warnings	Trace limit
DFQ 1					! TRNSYS numerical integration solver method
WIDTH 80				! TRNSYS output file width, number of characters
LIST 					! NOLIST statement
					! MAP statement
SOLVER 0 1 1				! Solver statement	Minimum relaxation factor	Maximum relaxation factor
NAN_CHECK 0				! Nan DEBUG statement
OVERWRITE_CHECK 0			! Overwrite DEBUG statement
TIME_REPORT 0			! disable time report
EQSOLVER 0				! EQUATION SOLVER statement

* Model "Type31" (Type 31)
* 

UNIT 4 TYPE 31	 Type31
*$UNIT_NAME Type31
*$MODEL .\Hydronics\Pipe_Duct\Type31.tmf
*$POSITION 654 130
*$LAYER Water Loop # 
PARAMETERS 6
0.2		! 1 Inside diameter
1.0		! 2 Pipe length
0		! 3 Loss coefficient
1000.0		! 4 Fluid density
4.190		! 5 Fluid specific heat
10.0		! 6 Initial fluid temperature
INPUTS 3
8,3 		! Type130:THccToTrnsys-1 ->Inlet temperature
8,4 		! Type130:FlowHccToTrnsys-1 ->Inlet flow rate
0,0		! [unconnected] Environment temperature
*** INITIAL INPUT VALUES
10.0 100.0 10.0 
*------------------------------------------------------------------------------

* Model "Type31-2" (Type 31)
* 

UNIT 5 TYPE 31	 Type31-2
*$UNIT_NAME Type31-2
*$MODEL .\Hydronics\Pipe_Duct\Type31.tmf
*$POSITION 654 319
*$LAYER Main # 
PARAMETERS 6
0.2		! 1 Inside diameter
1.0		! 2 Pipe length
0		! 3 Loss coefficient
1000.0		! 4 Fluid density
4.190		! 5 Fluid specific heat
10.0		! 6 Initial fluid temperature
INPUTS 3
8,5 		! Type130:THccToTrnsys-2 ->Inlet temperature
8,6 		! Type130:FlowHccToTrnsys-2 ->Inlet flow rate
0,0		! [unconnected] Environment temperature
*** INITIAL INPUT VALUES
10.0 100.0 10.0 
*------------------------------------------------------------------------------

* Model "Type25a" (Type 25)
* 

UNIT 6 TYPE 25	 Type25a
*$UNIT_NAME Type25a
*$MODEL .\Output\Printer\Unformatted\TRNSYS-Supplied Units\Type25a.tmf
*$POSITION 209 372
*$LAYER Outputs # 
PARAMETERS 10
STEP		! 1 Printing interval
START		! 2 Start time
STOP		! 3 Stop time
30		! 4 Logical unit
2		! 5 Units printing mode
0		! 6 Relative or absolute start time
-1		! 7 Overwrite or Append
-1		! 8 Print header
2		! 9 Delimiter
1		! 10 Print labels
INPUTS 6
8,3 		! Type130:THccToTrnsys-1 ->Input to be printed-1
8,4 		! Type130:FlowHccToTrnsys-1 ->Input to be printed-2
8,5 		! Type130:THccToTrnsys-2 ->Input to be printed-3
8,6 		! Type130:FlowHccToTrnsys-2 ->Input to be printed-4
7,1 		! Type649:Outlet temperature ->Input to be printed-5
7,2 		! Type649:Outlet flow rate ->Input to be printed-6
*** INITIAL INPUT VALUES
THccToTrnsys-1 FlowHccToTrnsys-1 THccToTrnsys-2 FlowHccToTrnsys-2
THccToTrnsys-1 THccToTrnsys-1 
*** External files
ASSIGN "***.out" 30
*|? Output File for printed results |1000
*------------------------------------------------------------------------------

* Model "Type649" (Type 649)
* 

UNIT 7 TYPE 649	 Type649
*$UNIT_NAME Type649
*$MODEL .\Hydronics Library (TESS)\Valves\Mixing Valve (100 Ports)\Other Fluids\Type649.tmf
*$POSITION 870 212
*$LAYER Main # 
PARAMETERS 1
2		! 1 Number of inlets
INPUTS 4
4,1 		! Type31:Outlet temperature ->Temperature at inlet-1
4,2 		! Type31:Outlet flow rate ->Flow rate at inlet-1
5,1 		! Type31-2:Outlet temperature ->Temperature at inlet-2
5,2 		! Type31-2:Outlet flow rate ->Flow rate at inlet-2
*** INITIAL INPUT VALUES
20 200.0 20 200.0 
*------------------------------------------------------------------------------

* Model "Type130" (Type 130)
* 

UNIT 8 TYPE 130	 Type130
*$UNIT_NAME Type130
*$MODEL .\Cosim Espr\Type130.tmf
*$POSITION 338 131
*$LAYER Main # 
PARAMETERS 6
0		! 1 Mode
1		! 2 NumZones
2		! 3 NumHccToTrnsys
1		! 4 NumHccToEspr
0		! 5 NumAccToTrnsys
0		! 6 NumAccToEspr
INPUTS 3
0,0		! [unconnected] Gains Zone
7,1 		! Type649:Outlet temperature ->THccToEspr
7,2 		! Type649:Outlet flow rate ->FlowHccToEspr
*** INITIAL INPUT VALUES
0 0 0 
*------------------------------------------------------------------------------

END
