VERSION 17
*******************************************************************************
*** TRNSYS input file (deck) generated by TrnsysStudio
*** on Thursday, June 21, 2012 at 12:42
*** from TrnsysStudio project: E:\co-simulation-tests\test_F\TRNSYS\F_2.tpf
*** 
*** If you edit this file, use the File/Import TRNSYS Input File function in 
*** TrnsysStudio to update the project. 
*** 
*** If you have problems, questions or suggestions please contact your local 
*** TRNSYS distributor or mailto:software@cstb.fr 
*** 
*******************************************************************************


*******************************************************************************
*** Units 
*******************************************************************************

*******************************************************************************
*** Control cards
*******************************************************************************
* START, STOP and STEP
CONSTANTS 3
START=720
STOP=912
STEP=delta_t
* User defined CONSTANTS 
EQUATIONS 1
delta_t = 1/60
SIMULATION 	 START	 STOP	 STEP	! Start time	End time	Time step
TOLERANCES 0.001 0.001			! Integration	 Convergence
LIMITS 30 500 50				! Max iterations	Max warnings	Trace limit
DFQ 1					! TRNSYS numerical integration solver method
WIDTH 80				! TRNSYS output file width, number of characters
LIST 					! NOLIST statement
					! MAP statement
SOLVER 0 1 1				! Solver statement	Minimum relaxation factor	Maximum relaxation factor
NAN_CHECK 0				! Nan DEBUG statement
OVERWRITE_CHECK 0			! Overwrite DEBUG statement
TIME_REPORT 0			! disable time report
EQSOLVER 0				! EQUATION SOLVER statement

* Model "Type130" (Type 130)
* 

UNIT 2 TYPE 130	 Type130
*$UNIT_NAME Type130
*$MODEL .\ESP-r coupling\Type130.tmf
*$POSITION 539 170
*$LAYER Main # 
PARAMETERS 6
0		! 1 Mode
1		! 2 NumZones
1		! 3 NumHccToTrnsys
2		! 4 NumHccToEspr
0		! 5 NumAccToTrnsys
0		! 6 NumAccToEspr
INPUTS 5
0,0		! [unconnected] Gains Zone
3,1 		! Type647:Outlet temperature-1 ->THccToEspr-1
3,2 		! Type647:Outlet flow rate-1 ->FlowHccToEspr-1
3,3 		! Type647:Outlet temperature-2 ->THccToEspr-2
3,4 		! Type647:Outlet flow rate-2 ->FlowHccToEspr-2
*** INITIAL INPUT VALUES
0 0 0 0 0 
*------------------------------------------------------------------------------

* Model "Type647" (Type 647)
* 

UNIT 3 TYPE 647	 Type647
*$UNIT_NAME Type647
*$MODEL .\Hydronics Library (TESS)\Valves\Diverting Valve (100 Ports)\Other Fluids\Type647.tmf
*$POSITION 774 167
*$LAYER Main # 
PARAMETERS 1
2		! 1 Number of outlet ports
INPUTS 4
2,3 		! Type130:THccToTrnsys ->Inlet Temperature
2,4 		! Type130:FlowHccToTrnsys ->Inlet flow rate
0,0		! [unconnected] Fraction of flow to outlet -1
0,0		! [unconnected] Fraction of flow to outlet -2
*** INITIAL INPUT VALUES
20.0 1000. 0.75 0.25 
*------------------------------------------------------------------------------

END
