VERSION 17
*******************************************************************************
*** TRNSYS input file (deck) generated by TrnsysStudio
*** on jeudi, janvier 26, 2012 at 14:09
*** from TrnsysStudio project: C:\Trnsys17\MyProjects\Tests co-simulation\Espr Trnsys Test D\TC_FV_Trnsys_D_1.tpf
*** 
*** If you edit this file, use the File/Import TRNSYS Input File function in 
*** TrnsysStudio to update the project. 
*** 
*** If you have problems, questions or suggestions please contact your local 
*** TRNSYS distributor or mailto:software@cstb.fr 
*** 
*******************************************************************************


*******************************************************************************
*** Units 
*******************************************************************************

*******************************************************************************
*** Control cards
*******************************************************************************
* START, STOP and STEP
CONSTANTS 3
START=0
STOP=744
STEP=TSTEP
* User defined CONSTANTS 
EQUATIONS 1
TSTEP = 1/60
SIMULATION 	 START	 STOP	 STEP	! Start time	End time	Time step
TOLERANCES 0.001 0.001			! Integration	 Convergence
LIMITS 30 500 50				! Max iterations	Max warnings	Trace limit
DFQ 1					! TRNSYS numerical integration solver method
WIDTH 80				! TRNSYS output file width, number of characters
LIST 					! NOLIST statement
					! MAP statement
SOLVER 0 1 1				! Solver statement	Minimum relaxation factor	Maximum relaxation factor
NAN_CHECK 0				! Nan DEBUG statement
OVERWRITE_CHECK 0			! Overwrite DEBUG statement
TIME_REPORT 0			! disable time report
EQSOLVER 0				! EQUATION SOLVER statement

* Model "heater" (Type 6)
* 

UNIT 3 TYPE 6	 heater
*$UNIT_NAME heater
*$MODEL .\HVAC\Auxiliary Heaters\Type6.tmf
*$POSITION 492 383
*$LAYER Water Loop # 
PARAMETERS 4
1000000.0		! 1 Maximum heating rate
1		! 2 Specific heat of fluid
0.0		! 3 Overall loss coefficient for heater during operation
1.0		! 4 Efficiency of auxiliary heater
INPUTS 5
9,1 		! fan:Outlet fluid temperature ->Inlet fluid temperature
9,2 		! fan:Outlet flow rate ->Fluid mass flow rate
0,0		! [unconnected] Control Function
0,0		! [unconnected] Set point temperature
0,0		! [unconnected] Temperature of surroundings
*** INITIAL INPUT VALUES
20.0 100.0 1 40 20.0 
*------------------------------------------------------------------------------

* Model "on/off controller" (Type 108)
* 

UNIT 8 TYPE 108	 on/off controller
*$UNIT_NAME on/off controller
*$MODEL .\Controllers\5-Stage Room Thermostat\Type108.tmf
*$POSITION 436 266
*$LAYER Main # 
PARAMETERS 6
5		! 1 No of oscillations permitted
1		! 2 1st stage heating in 2nd stage?
1		! 3 2nd stage heating in 3rd stage?
1		! 4 1st stage heating in 3rd stage?
1		! 5 1st stage cooling in 2nd stage?
2.0		! 6 Temperature dead band
INPUTS 6
10,1 		! building: 1- TAIR_1650FF ->Monitoring temperature
0,0		! [unconnected] 1st stage heating setpoint
0,0		! [unconnected] 2nd stage heating setpoint
0,0		! [unconnected] 3rd stage heating setpoint
0,0		! [unconnected] 1st stage cooling setpoint
0,0		! [unconnected] 2nd stage cooling setpoint
*** INITIAL INPUT VALUES
20.0 20.0 0 0 24.0 26.0 
*------------------------------------------------------------------------------

* Model "Type25c" (Type 25)
* 

UNIT 7 TYPE 25	 Type25c
*$UNIT_NAME Type25c
*$MODEL .\Output\Printer\Unformatted\No Units\Type25c.tmf
*$POSITION 699 148
*$LAYER Outputs # 
PARAMETERS 10
STEP		! 1 Printing interval
START		! 2 Start time
STOP		! 3 Stop time
30		! 4 Logical unit
0		! 5 Units printing mode
0		! 6 Relative or absolute start time
-1		! 7 Overwrite or Append
-1		! 8 Print header
0		! 9 Delimiter
1		! 10 Print labels
INPUTS 5
3,1 		! heater:Outlet fluid temperature ->Input to be printed-1
3,2 		! heater:Outlet fluid flow rate ->Input to be printed-2
0,0		! [unconnected] Input to be printed-3
0,0		! [unconnected] Input to be printed-4
0,0		! [unconnected] Input to be printed-5
*** INITIAL INPUT VALUES
THccToEspr FlowHccToEspr Tdbzone THccToTrnsys FlowHccToTrnsys 
*** External files
ASSIGN "***.out" 30
*|? Output file for printed results |1000
*------------------------------------------------------------------------------

* Model "fan" (Type 3)
* 

UNIT 9 TYPE 3	 fan
*$UNIT_NAME fan
*$MODEL .\Hydronics\Fans\Single Speed\No Humidity\Type3c.tmf
*$POSITION 312 383
*$LAYER Main # 
PARAMETERS 4
1000.0		! 1 Maximum flow rate
1		! 2 Fluid specific heat
100000000.0		! 3 Maximum power
0		! 4 Conversion coefficient
INPUTS 3
10,1 		! building: 1- TAIR_1650FF ->Inlet fluid temperature
0,0		! [unconnected] Inlet mass flow rate
8,1 		! on/off controller:Control signal for 1st stage heating ->Control signal
*** INITIAL INPUT VALUES
20.0 100.0 1.0 
*------------------------------------------------------------------------------

* Model "building" (Type 56)
* 

UNIT 10 TYPE 56	 building
*$UNIT_NAME building
*$MODEL .\Loads and Structures\Multi-Zone Building\Type56.tmf
*$POSITION 675 266
*$LAYER Main # 
*$#   
PARAMETERS 3
31		! 1 Logical unit for building description file (.bui)
0		! 2 Star network calculation switch
0.50		! 3 Weighting factor for operative temperature
INPUTS 27
12,1 		! weather data reader:Dry bulb temperature -> 1- TAMB
0,0		! [unconnected]  2- RELHUMAMB
12,4 		! weather data reader:Effective sky temperature -> 3- TSKY
0,0		! [unconnected]  4- TSGRD
12,16 		! weather data reader:Solar zenith angle -> 5- AZEN
12,17 		! weather data reader:Solar azimuth angle -> 6- AAZM
12,18 		! weather data reader:Total horizontal radiation -> 7- IT_H_0_0
12,25 		! weather data reader:Total tilted surface radiation for surface-2 -> 8- IT_S_0_90
12,26 		! weather data reader:Total tilted surface radiation for surface-3 -> 9- IT_W_90_90
12,27 		! weather data reader:Total tilted surface radiation for surface-4 -> 10- IT_N_180_90
12,28 		! weather data reader:Total tilted surface radiation for surface-5 -> 11- IT_E_270_90
12,19 		! weather data reader:Horizontal beam radiation -> 12- IB_H_0_0
12,30 		! weather data reader:Beam radiation for surface-2 -> 13- IB_S_0_90
12,31 		! weather data reader:Beam radiation for surface-3 -> 14- IB_W_90_90
12,32 		! weather data reader:Beam radiation for surface-4 -> 15- IB_N_180_90
12,33 		! weather data reader:Beam radiation for surface-5 -> 16- IB_E_270_90
12,23 		! weather data reader:Angle of incidence for horizontal -> 17- AI_H_0_0
12,50 		! weather data reader:Angle of incidence for surface-2 -> 18- AI_S_0_90
12,51 		! weather data reader:Angle of incidence for surface-3 -> 19- AI_W_90_90
12,52 		! weather data reader:Angle of incidence for surface-4 -> 20- AI_N_180_90
12,53 		! weather data reader:Angle of incidence for surface-5 -> 21- AI_E_270_90
0,0		! [unconnected]  22- GRDREF
12,5 		! weather data reader:Mains water temperature -> 23- TGROUND
0,0		! [unconnected]  24- BRIGHT
0,0		! [unconnected]  25- HEATFROMRADIATOR
3,1 		! heater:Outlet fluid temperature -> 26- TAIRIN
3,2 		! heater:Outlet fluid flow rate -> 27- FAIRIN
*** INITIAL INPUT VALUES
0 0 0 0 0 0 0 0 0 0 0 0 0 0 0 0 0 0 0 0 0 0 0 0 0 0 0 
*** External files
ASSIGN "ashrae_std_600.b17" 31
*|? Building description file (*.bui) |1000
*------------------------------------------------------------------------------

* Model "plotter 1" (Type 65)
* 

UNIT 11 TYPE 65	 plotter 1
*$UNIT_NAME plotter 1
*$MODEL .\Output\Online Plotter\Online Plotter Without File\Type65d.tmf
*$POSITION 966 116
*$LAYER Main # 
PARAMETERS 12
1		! 1 Nb. of left-axis variables
1		! 2 Nb. of right-axis variables
0.0		! 3 Left axis minimum
30.0		! 4 Left axis maximum
0.0		! 5 Right axis minimum
2000.0		! 6 Right axis maximum
1		! 7 Number of plots per simulation
12		! 8 X-axis gridpoints
0		! 9 Shut off Online w/o removing
-1		! 10 Logical unit for output file
0		! 11 Output file units
0		! 12 Output file delimiter
INPUTS 2
12,1 		! weather data reader:Dry bulb temperature ->Left axis variable
12,14 		! weather data reader:Global horizontal radiation (not interpolated) ->Right axis variable
*** INITIAL INPUT VALUES
Text Gh 
LABELS  3
"Temperatures"
"Heat transfer rates"
"Graph 1"
*------------------------------------------------------------------------------

* Model "weather data reader" (Type 15)
* 

UNIT 12 TYPE 15	 weather data reader
*$UNIT_NAME weather data reader
*$MODEL .\Weather Data Reading and Processing\Standard Format\Canadian Weather for Energy Calculations Files (CWEC)\Type15-5.tmf
*$POSITION 832 191
*$LAYER Main # 
PARAMETERS 21
5		! 1 File Type
35		! 2 Logical unit
3		! 3 Tilted Surface Radiation Mode
0.2		! 4 Ground reflectance - no snow
0.7		! 5 Ground reflectance - snow cover
5		! 6 Number of surfaces
1		! 7 Tracking mode-1
45		! 8 Slope of surface-1
0		! 9 Azimuth of surface-1
1		! 10 Tracking mode-2
90		! 11 Slope of surface-2
0		! 12 Azimuth of surface-2
1		! 13 Tracking mode-3
90		! 14 Slope of surface-3
90		! 15 Azimuth of surface-3
1		! 16 Tracking mode-4
90		! 17 Slope of surface-4
180		! 18 Azimuth of surface-4
1		! 19 Tracking mode-5
90		! 20 Slope of surface-5
-90		! 21 Azimuth of surface-5
*** External files
ASSIGN "DRYCOLDTMY.epw" 35
*|? Which file contains the CWEC weather data? |1000
*------------------------------------------------------------------------------

* Model "plotter 2" (Type 65)
* 

UNIT 13 TYPE 65	 plotter 2
*$UNIT_NAME plotter 2
*$MODEL .\Output\Online Plotter\Online Plotter Without File\Type65d.tmf
*$POSITION 850 330
*$LAYER Main # 
PARAMETERS 12
2		! 1 Nb. of left-axis variables
2		! 2 Nb. of right-axis variables
0.0		! 3 Left axis minimum
80.0		! 4 Left axis maximum
0.0		! 5 Right axis minimum
30000.0		! 6 Right axis maximum
1		! 7 Number of plots per simulation
12		! 8 X-axis gridpoints
0		! 9 Shut off Online w/o removing
-1		! 10 Logical unit for output file
0		! 11 Output file units
0		! 12 Output file delimiter
INPUTS 4
3,1 		! heater:Outlet fluid temperature ->Left axis variable-1
10,1 		! building: 1- TAIR_1650FF ->Left axis variable-2
3,3 		! heater:Required heating rate ->Right axis variable-1
3,2 		! heater:Outlet fluid flow rate ->Right axis variable-2
*** INITIAL INPUT VALUES
Tair_in Tair_out Heat Flow_air 
LABELS  3
"Temperatures"
"Heat transfer rates"
"Graph 1"
*------------------------------------------------------------------------------

* Model "Type25c-2" (Type 25)
* 

UNIT 14 TYPE 25	 Type25c-2
*$UNIT_NAME Type25c-2
*$MODEL .\Output\Printer\Unformatted\No Units\Type25c.tmf
*$POSITION 763 479
*$LAYER Outputs # 
PARAMETERS 10
STEP		! 1 Printing interval
START		! 2 Start time
STOP		! 3 Stop time
36		! 4 Logical unit
0		! 5 Units printing mode
0		! 6 Relative or absolute start time
-1		! 7 Overwrite or Append
-1		! 8 Print header
0		! 9 Delimiter
1		! 10 Print labels
INPUTS 3
3,1 		! heater:Outlet fluid temperature ->Input to be printed-1
10,1 		! building: 1- TAIR_1650FF ->Input to be printed-2
3,2 		! heater:Outlet fluid flow rate ->Input to be printed-3
*** INITIAL INPUT VALUES
T_air_in T_air_out Flow_air 
*** External files
ASSIGN "***.txt" 36
*|? Output file for printed results |1000
*------------------------------------------------------------------------------

END
