VERSION 17
*******************************************************************************
*** TRNSYS input file (deck) generated by TrnsysStudio
*** on lundi, février 27, 2012 at 09:54
*** from TrnsysStudio project: C:\Users\maîtrise\Documents\SVN\co-simulation\test_D\TRNSYS\Trnsys only\TC_FV_Trnsys_D_2.tpf
*** 
*** If you edit this file, use the File/Import TRNSYS Input File function in 
*** TrnsysStudio to update the project. 
*** 
*** If you have problems, questions or suggestions please contact your local 
*** TRNSYS distributor or mailto:software@cstb.fr 
*** 
*******************************************************************************


*******************************************************************************
*** Units 
*******************************************************************************

*******************************************************************************
*** Control cards
*******************************************************************************
* START, STOP and STEP
CONSTANTS 3
START=0
STOP=8760
STEP=TSTEP
* User defined CONSTANTS 
EQUATIONS 1
TSTEP=1/60
SIMULATION 	 START	 STOP	 STEP	! Start time	End time	Time step
TOLERANCES 0.001 0.001			! Integration	 Convergence
LIMITS 30 500 50				! Max iterations	Max warnings	Trace limit
DFQ 1					! TRNSYS numerical integration solver method
WIDTH 80				! TRNSYS output file width, number of characters
LIST 					! NOLIST statement
					! MAP statement
SOLVER 0 1 1				! Solver statement	Minimum relaxation factor	Maximum relaxation factor
NAN_CHECK 0				! Nan DEBUG statement
OVERWRITE_CHECK 0			! Overwrite DEBUG statement
TIME_REPORT 0			! disable time report
EQSOLVER 0				! EQUATION SOLVER statement

* Model "on/off controller" (Type 108)
* 

UNIT 8 TYPE 108	 on/off controller
*$UNIT_NAME on/off controller
*$MODEL .\Controllers\5-Stage Room Thermostat\Type108.tmf
*$POSITION 436 266
*$LAYER Main # 
PARAMETERS 6
5		! 1 No of oscillations permitted
1		! 2 1st stage heating in 2nd stage?
1		! 3 2nd stage heating in 3rd stage?
1		! 4 1st stage heating in 3rd stage?
1		! 5 1st stage cooling in 2nd stage?
2.0		! 6 Temperature dead band
INPUTS 6
11,1 		! Type56: 1- TAIR_1650FF ->Monitoring temperature
0,0		! [unconnected] 1st stage heating setpoint
0,0		! [unconnected] 2nd stage heating setpoint
0,0		! [unconnected] 3rd stage heating setpoint
0,0		! [unconnected] 1st stage cooling setpoint
0,0		! [unconnected] 2nd stage cooling setpoint
*** INITIAL INPUT VALUES
20.0 20.0 0 0 24.0 26.0 
*------------------------------------------------------------------------------

* Model "Type25c" (Type 25)
* 

UNIT 7 TYPE 25	 Type25c
*$UNIT_NAME Type25c
*$MODEL .\Output\Printer\Unformatted\No Units\Type25c.tmf
*$POSITION 699 116
*$LAYER Outputs # 
PARAMETERS 10
STEP		! 1 Printing interval
START		! 2 Start time
STOP		! 3 Stop time
30		! 4 Logical unit
0		! 5 Units printing mode
0		! 6 Relative or absolute start time
-1		! 7 Overwrite or Append
-1		! 8 Print header
0		! 9 Delimiter
1		! 10 Print labels
INPUTS 5
15,1 		! Type930:Outlet air temperature ->Input to be printed-1
15,4 		! Type930:Outlet air flow rate ->Input to be printed-2
11,1 		! Type56: 1- TAIR_1650FF ->Input to be printed-3
15,2 		! Type930:Outlet air humidity ratio ->Input to be printed-4
11,5 		! Type56: 5- ABSHUM_1650FF ->Input to be printed-5
*** INITIAL INPUT VALUES
THccToEspr FlowHccToEspr Tdbzone HRtoZONE HRfromZONE 
*** External files
ASSIGN "***.out" 30
*|? Output file for printed results |1000
*------------------------------------------------------------------------------

* Model "fan" (Type 3)
* 

UNIT 9 TYPE 3	 fan
*$UNIT_NAME fan
*$MODEL .\Hydronics\Fans\Single Speed\No Humidity\Type3c.tmf
*$POSITION 312 383
*$LAYER Main # 
PARAMETERS 4
1000.0		! 1 Maximum flow rate
1		! 2 Fluid specific heat
100000000.0		! 3 Maximum power
0		! 4 Conversion coefficient
INPUTS 3
11,1 		! Type56: 1- TAIR_1650FF ->Inlet fluid temperature
0,0		! [unconnected] Inlet mass flow rate
8,1 		! on/off controller:Control signal for 1st stage heating ->Control signal
*** INITIAL INPUT VALUES
20.0 100.0 1.0 
*------------------------------------------------------------------------------

* Model "Type56" (Type 56)
* 

UNIT 11 TYPE 56	 Type56
*$UNIT_NAME Type56
*$MODEL .\Loads and Structures\Multi-Zone Building\Type56.tmf
*$POSITION 643 287
*$LAYER Main # 
*$#   
PARAMETERS 3
31		! 1 Logical unit for building description file (.bui)
0		! 2 Star network calculation switch
0.50		! 3 Weighting factor for operative temperature
INPUTS 29
13,1 		! weather data reader:Dry bulb temperature -> 1- TAMB
13,7 		! weather data reader:Percent relative humidity -> 2- RELHUMAMB
13,4 		! weather data reader:Effective sky temperature -> 3- TSKY
0,0		! [unconnected]  4- TSGRD
13,16 		! weather data reader:Solar zenith angle -> 5- AZEN
13,17 		! weather data reader:Solar azimuth angle -> 6- AAZM
13,18 		! weather data reader:Total horizontal radiation -> 7- IT_H_0_0
13,25 		! weather data reader:Total tilted surface radiation for surface-2 -> 8- IT_S_0_90
13,26 		! weather data reader:Total tilted surface radiation for surface-3 -> 9- IT_W_90_90
13,27 		! weather data reader:Total tilted surface radiation for surface-4 -> 10- IT_N_180_90
13,28 		! weather data reader:Total tilted surface radiation for surface-5 -> 11- IT_E_270_90
13,19 		! weather data reader:Horizontal beam radiation -> 12- IB_H_0_0
13,30 		! weather data reader:Beam radiation for surface-2 -> 13- IB_S_0_90
13,31 		! weather data reader:Beam radiation for surface-3 -> 14- IB_W_90_90
13,32 		! weather data reader:Beam radiation for surface-4 -> 15- IB_N_180_90
13,33 		! weather data reader:Beam radiation for surface-5 -> 16- IB_E_270_90
13,23 		! weather data reader:Angle of incidence for horizontal -> 17- AI_H_0_0
13,50 		! weather data reader:Angle of incidence for surface-2 -> 18- AI_S_0_90
13,51 		! weather data reader:Angle of incidence for surface-3 -> 19- AI_W_90_90
13,52 		! weather data reader:Angle of incidence for surface-4 -> 20- AI_N_180_90
13,53 		! weather data reader:Angle of incidence for surface-5 -> 21- AI_E_270_90
0,0		! [unconnected]  22- GRDREF
13,5 		! weather data reader:Mains water temperature -> 23- TGROUND
0,0		! [unconnected]  24- BRIGHT
0,0		! [unconnected]  25- HEATFROMRADIATOR
15,1 		! Type930:Outlet air temperature -> 26- TAIRIN
15,4 		! Type930:Outlet air flow rate -> 27- FAIRIN
0,0		! [unconnected]  28- RELHUMIDITY
15,2 		! Type930:Outlet air humidity ratio -> 29- ABSHUMIDITY
*** INITIAL INPUT VALUES
0 10 0 0 0 0 0 0 0 0 0 0 0 0 0 0 0 0 0 0 0 0 0 0 0 0 0 0 0 
*** External files
ASSIGN "ashrae_std_600_humidity.b17" 31
*|? Building description file (*.bui) |1000
*------------------------------------------------------------------------------

* Model "Type65d" (Type 65)
* 

UNIT 12 TYPE 65	 Type65d
*$UNIT_NAME Type65d
*$MODEL .\Output\Online Plotter\Online Plotter Without File\Type65d.tmf
*$POSITION 839 308
*$LAYER Main # 
PARAMETERS 12
2		! 1 Nb. of left-axis variables
3		! 2 Nb. of right-axis variables
0.0		! 3 Left axis minimum
0.005		! 4 Left axis maximum
0.0		! 5 Right axis minimum
0.005		! 6 Right axis maximum
1		! 7 Number of plots per simulation
12		! 8 X-axis gridpoints
0		! 9 Shut off Online w/o removing
-1		! 10 Logical unit for output file
0		! 11 Output file units
0		! 12 Output file delimiter
INPUTS 5
15,1 		! Type930:Outlet air temperature ->Left axis variable-1
15,2 		! Type930:Outlet air humidity ratio ->Left axis variable-2
15,4 		! Type930:Outlet air flow rate ->Right axis variable-1
11,1 		! Type56: 1- TAIR_1650FF ->Right axis variable-2
11,5 		! Type56: 5- ABSHUM_1650FF ->Right axis variable-3
*** INITIAL INPUT VALUES
TempToZone HRtoZone FlowRate TempZone HRZone 
LABELS  3
"Temperatures"
"Heat transfer rates"
"Graph 1"
*------------------------------------------------------------------------------

* Model "weather data reader" (Type 15)
* 

UNIT 13 TYPE 15	 weather data reader
*$UNIT_NAME weather data reader
*$MODEL .\Weather Data Reading and Processing\Standard Format\Canadian Weather for Energy Calculations Files (CWEC)\Type15-5.tmf
*$POSITION 851 159
*$LAYER Main # 
PARAMETERS 21
5		! 1 File Type
36		! 2 Logical unit
3		! 3 Tilted Surface Radiation Mode
0.2		! 4 Ground reflectance - no snow
0.7		! 5 Ground reflectance - snow cover
5		! 6 Number of surfaces
1		! 7 Tracking mode-1
45		! 8 Slope of surface-1
0		! 9 Azimuth of surface-1
1		! 10 Tracking mode-2
90		! 11 Slope of surface-2
0		! 12 Azimuth of surface-2
1		! 13 Tracking mode-3
90		! 14 Slope of surface-3
90		! 15 Azimuth of surface-3
1		! 16 Tracking mode-4
90		! 17 Slope of surface-4
180		! 18 Azimuth of surface-4
1		! 19 Tracking mode-5
90		! 20 Slope of surface-5
-90		! 21 Azimuth of surface-5
*** External files
ASSIGN "DRYCOLDTMY.epw" 36
*|? Which file contains the CWEC weather data? |1000
*------------------------------------------------------------------------------

* Model "Type930" (Type 930)
* 

UNIT 15 TYPE 930	 Type930
*$UNIT_NAME Type930
*$MODEL .\HVAC Library (TESS)\Heating Coils\Electric\Type930.tmf
*$POSITION 486 362
*$LAYER Main # 
*$# ELECTRIC HEATING COIL
PARAMETERS 1
1		! 1 Humidity mode
INPUTS 9
9,1 		! fan:Outlet fluid temperature ->Inlet air temperature
11,5 		! Type56: 5- ABSHUM_1650FF ->Inlet air humidity ratio
0,0		! [unconnected] Inlet air %RH
9,2 		! fan:Outlet flow rate ->Air flow rate
0,0		! [unconnected] Inlet air pressure
0,0		! [unconnected] Heating capacity
0,0		! [unconnected] Control function
0,0		! [unconnected] Air-side pressure drop
0,0		! [unconnected] Setpoint temperature
*** INITIAL INPUT VALUES
20.0 0.008 50.0 1000.0 1.0 100000.0 1.0 0.0 50 
*------------------------------------------------------------------------------

END
