VERSION 17
*******************************************************************************
*** TRNSYS input file (deck) generated by TrnsysStudio
*** on mardi, avril 17, 2012 at 13:52
*** from TrnsysStudio project: C:\Trnsys17\MyProjects\Tests co-simulation\Espr Trnsys test B\EsprTrnsysTest_B_3.tpf
*** 
*** If you edit this file, use the File/Import TRNSYS Input File function in 
*** TrnsysStudio to update the project. 
*** 
*** If you have problems, questions or suggestions please contact your local 
*** TRNSYS distributor or mailto:software@cstb.fr 
*** 
*******************************************************************************


*******************************************************************************
*** Units 
*******************************************************************************

*******************************************************************************
*** Control cards
*******************************************************************************
* START, STOP and STEP
CONSTANTS 3
START=0
STOP=48
STEP=TSTEP
* User defined CONSTANTS 
EQUATIONS 1
TSTEP = 1/60
* User defined CONSTANTS 

SIMULATION 	 START	 STOP	 STEP	! Start time	End time	Time step
TOLERANCES 0.001 0.0001			! Integration	 Convergence
LIMITS 30 500 50				! Max iterations	Max warnings	Trace limit
DFQ 1					! TRNSYS numerical integration solver method
WIDTH 80				! TRNSYS output file width, number of characters
LIST 					! NOLIST statement
					! MAP statement
SOLVER 0 1 1				! Solver statement	Minimum relaxation factor	Maximum relaxation factor
NAN_CHECK 0				! Nan DEBUG statement
OVERWRITE_CHECK 0			! Overwrite DEBUG statement
TIME_REPORT 0			! disable time report
EQSOLVER 0				! EQUATION SOLVER statement

* EQUATIONS "Equa"
* 
EQUATIONS 2
THccToEspr = 75
FlowHccToEspr = 500
*$UNIT_NAME Equa
*$LAYER Main
*$POSITION 255 223

*------------------------------------------------------------------------------


* Model "printer" (Type 25)
* 

UNIT 5 TYPE 25	 printer
*$UNIT_NAME printer
*$MODEL .\Output\Printer\Unformatted\No Units\Type25c.tmf
*$POSITION 465 148
*$LAYER Outputs # 
PARAMETERS 10
STEP		! 1 Printing interval
START		! 2 Start time
STOP		! 3 Stop time
30		! 4 Logical unit
0		! 5 Units printing mode
0		! 6 Relative or absolute start time
-1		! 7 Overwrite or Append
-1		! 8 Print header
0		! 9 Delimiter
1		! 10 Print labels
INPUTS 5
THccToEspr		! Equa:THccToEspr ->Input to be printed-1
FlowHccToEspr		! Equa:FlowHccToEspr ->Input to be printed-2
6,1 		! Type130:Tdbzone ->Input to be printed-3
6,3 		! Type130:THccToTrnsys ->Input to be printed-4
6,4 		! Type130:FlowHccToTrnsys ->Input to be printed-5
*** INITIAL INPUT VALUES
THccToEspr FlowHccToEspr Tdbzone THccToTrnsys FlowHccToTrnsys 
*** External files
ASSIGN "***.out" 30
*|? Output file for printed results |1000
*------------------------------------------------------------------------------

* Model "Type130" (Type 130)
* 

UNIT 6 TYPE 130	 Type130
*$UNIT_NAME Type130
*$MODEL .\Cosim Espr\Type130.tmf
*$POSITION 242 110
*$LAYER Main # 
PARAMETERS 6
0		! 1 Mode
1		! 2 NumZones
1		! 3 NumHccToTrnsys
1		! 4 NumHccToEspr
0		! 5 NumAccToTrnsys
0		! 6 NumAccToEspr
INPUTS 3
0,0		! [unconnected] Gains Zone
THccToEspr		! Equa:THccToEspr ->THccToEspr
FlowHccToEspr		! Equa:FlowHccToEspr ->FlowHccToEspr
*** INITIAL INPUT VALUES
0 0 0 
*------------------------------------------------------------------------------

END
